instances/data_GOC/Phase_0_RTS96/scenario_47/powersystem.raw
 0,  100.000000
rts96_spring_wday.raw / File written by to_psse.gms
5 / 19 / 2015
101, ' 101 ',138,2,1,1,1,1.00,0.00,1.1,0.9,1.1,0.9
102, ' 102 ',138,2,1,1,1,1.00,0.00,1.1,0.9,1.1,0.9
103, ' 103 ',138,1,1,1,1,1.00,0.00,1.1,0.9,1.1,0.9
104, ' 104 ',138,1,1,1,1,1.00,0.00,1.1,0.9,1.1,0.9
105, ' 105 ',138,1,1,1,1,1.00,0.00,1.1,0.9,1.1,0.9
106, ' 106 ',138,1,1,1,1,1.00,0.00,1.1,0.9,1.1,0.9
107, ' 107 ',138,2,1,1,1,1.00,0.00,1.1,0.9,1.1,0.9
108, ' 108 ',138,1,1,1,1,1.00,0.00,1.1,0.9,1.1,0.9
109, ' 109 ',138,1,1,1,1,1.00,0.00,1.1,0.9,1.1,0.9
110, ' 110 ',138,1,1,1,1,1.00,0.00,1.1,0.9,1.1,0.9
111, ' 111 ',230,1,1,1,1,1.00,0.00,1.1,0.9,1.1,0.9
112, ' 112 ',230,1,1,1,1,1.00,0.00,1.1,0.9,1.1,0.9
113, ' 113 ',230,3,1,1,1,1.00,0.00,1.1,0.9,1.1,0.9
114, ' 114 ',230,2,1,1,1,1.00,0.00,1.1,0.9,1.1,0.9
115, ' 115 ',230,2,1,1,1,1.00,0.00,1.1,0.9,1.1,0.9
116, ' 116 ',230,2,1,1,1,1.00,0.00,1.1,0.9,1.1,0.9
117, ' 117 ',230,1,1,1,1,1.00,0.00,1.1,0.9,1.1,0.9
118, ' 118 ',230,2,1,1,1,1.00,0.00,1.1,0.9,1.1,0.9
119, ' 119 ',230,1,1,1,1,1.00,0.00,1.1,0.9,1.1,0.9
120, ' 120 ',230,1,1,1,1,1.00,0.00,1.1,0.9,1.1,0.9
121, ' 121 ',230,2,1,1,1,1.00,0.00,1.1,0.9,1.1,0.9
122, ' 122 ',230,2,1,1,1,1.00,0.00,1.1,0.9,1.1,0.9
123, ' 123 ',230,2,1,1,1,1.00,0.00,1.1,0.9,1.1,0.9
124, ' 124 ',230,1,1,1,1,1.00,0.00,1.1,0.9,1.1,0.9
201, ' 201 ',138,2,1,1,1,1.00,0.00,1.1,0.9,1.1,0.9
202, ' 202 ',138,2,1,1,1,1.00,0.00,1.1,0.9,1.1,0.9
203, ' 203 ',138,1,1,1,1,1.00,0.00,1.1,0.9,1.1,0.9
204, ' 204 ',138,1,1,1,1,1.00,0.00,1.1,0.9,1.1,0.9
205, ' 205 ',138,1,1,1,1,1.00,0.00,1.1,0.9,1.1,0.9
206, ' 206 ',138,1,1,1,1,1.00,0.00,1.1,0.9,1.1,0.9
207, ' 207 ',138,2,1,1,1,1.00,0.00,1.1,0.9,1.1,0.9
208, ' 208 ',138,1,1,1,1,1.00,0.00,1.1,0.9,1.1,0.9
209, ' 209 ',138,1,1,1,1,1.00,0.00,1.1,0.9,1.1,0.9
210, ' 210 ',138,1,1,1,1,1.00,0.00,1.1,0.9,1.1,0.9
211, ' 211 ',230,1,1,1,1,1.00,0.00,1.1,0.9,1.1,0.9
212, ' 212 ',230,1,1,1,1,1.00,0.00,1.1,0.9,1.1,0.9
213, ' 213 ',230,2,1,1,1,1.00,0.00,1.1,0.9,1.1,0.9
214, ' 214 ',230,2,1,1,1,1.00,0.00,1.1,0.9,1.1,0.9
215, ' 215 ',230,2,1,1,1,1.00,0.00,1.1,0.9,1.1,0.9
216, ' 216 ',230,2,1,1,1,1.00,0.00,1.1,0.9,1.1,0.9
217, ' 217 ',230,1,1,1,1,1.00,0.00,1.1,0.9,1.1,0.9
218, ' 218 ',230,2,1,1,1,1.00,0.00,1.1,0.9,1.1,0.9
219, ' 219 ',230,1,1,1,1,1.00,0.00,1.1,0.9,1.1,0.9
220, ' 220 ',230,1,1,1,1,1.00,0.00,1.1,0.9,1.1,0.9
221, ' 221 ',230,2,1,1,1,1.00,0.00,1.1,0.9,1.1,0.9
222, ' 222 ',230,2,1,1,1,1.00,0.00,1.1,0.9,1.1,0.9
223, ' 223 ',230,2,1,1,1,1.00,0.00,1.1,0.9,1.1,0.9
224, ' 224 ',230,1,1,1,1,1.00,0.00,1.1,0.9,1.1,0.9
301, ' 301 ',138,2,1,1,1,1.00,0.00,1.1,0.9,1.1,0.9
302, ' 302 ',138,2,1,1,1,1.00,0.00,1.1,0.9,1.1,0.9
303, ' 303 ',138,1,1,1,1,1.00,0.00,1.1,0.9,1.1,0.9
304, ' 304 ',138,1,1,1,1,1.00,0.00,1.1,0.9,1.1,0.9
305, ' 305 ',138,1,1,1,1,1.00,0.00,1.1,0.9,1.1,0.9
306, ' 306 ',138,1,1,1,1,1.00,0.00,1.1,0.9,1.1,0.9
307, ' 307 ',138,2,1,1,1,1.00,0.00,1.1,0.9,1.1,0.9
308, ' 308 ',138,1,1,1,1,1.00,0.00,1.1,0.9,1.1,0.9
309, ' 309 ',138,1,1,1,1,1.00,0.00,1.1,0.9,1.1,0.9
310, ' 310 ',138,1,1,1,1,1.00,0.00,1.1,0.9,1.1,0.9
311, ' 311 ',230,1,1,1,1,1.00,0.00,1.1,0.9,1.1,0.9
312, ' 312 ',230,1,1,1,1,1.00,0.00,1.1,0.9,1.1,0.9
313, ' 313 ',230,2,1,1,1,1.00,0.00,1.1,0.9,1.1,0.9
314, ' 314 ',230,2,1,1,1,1.00,0.00,1.1,0.9,1.1,0.9
315, ' 315 ',230,2,1,1,1,1.00,0.00,1.1,0.9,1.1,0.9
316, ' 316 ',230,2,1,1,1,1.00,0.00,1.1,0.9,1.1,0.9
317, ' 317 ',230,1,1,1,1,1.00,0.00,1.1,0.9,1.1,0.9
318, ' 318 ',230,2,1,1,1,1.00,0.00,1.1,0.9,1.1,0.9
319, ' 319 ',230,1,1,1,1,1.00,0.00,1.1,0.9,1.1,0.9
320, ' 320 ',230,1,1,1,1,1.00,0.00,1.1,0.9,1.1,0.9
321, ' 321 ',230,2,1,1,1,1.00,0.00,1.1,0.9,1.1,0.9
322, ' 322 ',230,2,1,1,1,1.00,0.00,1.1,0.9,1.1,0.9
323, ' 323 ',230,2,1,1,1,1.00,0.00,1.1,0.9,1.1,0.9
324, ' 324 ',230,1,1,1,1,1.00,0.00,1.1,0.9,1.1,0.9
325, ' 325 ',230,1,1,1,1,1.00,0.00,1.1,0.9,1.1,0.9
0 / END OF BUS DATA, BEGIN LOAD DATA
101, '1 ',1,11,11,95.16432788077388,11.494070335446205,0.0,0.0,0.0,0.0,1,1,0
102, '1 ',1,11,12,52.001188570374296,10.810725008019245,0.0,0.0,0.0,0.0,1,1,0
103, '1 ',1,11,11,130.02258832961505,32.05795401616506,0.0,0.0,0.0,0.0,1,1,0
104, '1 ',1,11,11,62.20328666644328,12.887662787603215,0.0,0.0,0.0,0.0,1,1,0
105, '1 ',1,11,11,37.904357581076916,11.455522932307609,0.0,0.0,0.0,0.0,1,1,0
106, '1 ',1,11,12,121.02114387658685,22.14830583753437,0.0,0.0,0.0,0.0,1,1,0
107, '1 ',1,11,12,79.87372383182519,19.836750562068776,0.0,0.0,0.0,0.0,1,1,0
108, '1 ',1,11,12,144.3916499441353,28.129553719225573,0.0,0.0,0.0,0.0,1,1,0
109, '1 ',1,11,13,109.72105620243588,22.27329257044103,0.0,0.0,0.0,0.0,1,1,0
110, '1 ',1,11,13,139.37206754381884,21.21938741068728,0.0,0.0,0.0,0.0,1,1,0
111, '1 ',1,11,13,0.0,0.0,0.0,0.0,0.0,0.0,1,1,0
112, '1 ',1,11,13,0.0,0.0,0.0,0.0,0.0,0.0,1,1,0
113, '1 ',1,12,14,185.61387555958936,38.78123466158341,0.0,0.0,0.0,0.0,1,1,0
114, '1 ',1,12,16,146.564074934222,30.746586429122186,0.0,0.0,0.0,0.0,1,1,0
115, '1 ',1,12,16,249.16400062443472,41.51306969945132,0.0,0.0,0.0,0.0,1,1,0
116, '1 ',1,12,16,81.20380560601596,9.881778314301743,0.0,0.0,0.0,0.0,1,1,0
117, '1 ',1,12,17,0.0,0.0,0.0,0.0,0.0,0.0,1,1,0
118, '1 ',1,12,17,211.66118910635888,60.63828516300638,0.0,0.0,0.0,0.0,1,1,0
119, '1 ',1,12,15,118.15701217268966,29.374998471039532,0.0,0.0,0.0,0.0,1,1,0
120, '1 ',1,12,15,89.75061635375617,15.639045490985177,0.0,0.0,0.0,0.0,1,1,0
121, '1 ',1,12,17,0.0,0.0,0.0,0.0,0.0,0.0,1,1,0
122, '1 ',1,12,17,0.0,0.0,0.0,0.0,0.0,0.0,1,1,0
123, '1 ',1,12,15,0.0,0.0,0.0,0.0,0.0,0.0,1,1,0
124, '1 ',1,12,16,0.0,0.0,0.0,0.0,0.0,0.0,1,1,0
201, '1 ',1,21,21,52.81002213731222,13.81582572136363,0.0,0.0,0.0,0.0,1,1,0
202, '1 ',1,21,22,50.68991587693928,11.408658083321525,0.0,0.0,0.0,0.0,1,1,0
203, '1 ',1,21,21,110.77384068988356,33.24262647107891,0.0,0.0,0.0,0.0,1,1,0
204, '1 ',1,21,21,59.94251350726364,13.268747360837878,0.0,0.0,0.0,0.0,1,1,0
205, '1 ',1,21,21,48.50013931065691,12.144785705003422,0.0,0.0,0.0,0.0,1,1,0
206, '1 ',1,21,22,90.33415523088946,14.141857084397412,0.0,0.0,0.0,0.0,1,1,0
207, '1 ',1,21,22,65.70324626112124,19.976472602281717,0.0,0.0,0.0,0.0,1,1,0
208, '1 ',1,21,22,119.21123969529583,19.347402797309215,0.0,0.0,0.0,0.0,1,1,0
209, '1 ',1,21,23,151.93245170310607,20.80911578449644,0.0,0.0,0.0,0.0,1,1,0
210, '1 ',1,21,23,157.38150017338734,33.116440340369934,0.0,0.0,0.0,0.0,1,1,0
211, '1 ',1,21,23,0.0,0.0,0.0,0.0,0.0,0.0,1,1,0
212, '1 ',1,21,23,0.0,0.0,0.0,0.0,0.0,0.0,1,1,0
213, '1 ',1,22,24,218.8809453830549,34.63612832335643,0.0,0.0,0.0,0.0,1,1,0
214, '1 ',1,22,26,174.10357285069506,25.15106700904858,0.0,0.0,0.0,0.0,1,1,0
215, '1 ',1,22,26,199.12898092262583,48.997708359432224,0.0,0.0,0.0,0.0,1,1,0
216, '1 ',1,22,26,84.79276998333168,16.14899770344794,0.0,0.0,0.0,0.0,1,1,0
217, '1 ',1,22,27,0.0,0.0,0.0,0.0,0.0,0.0,1,1,0
218, '1 ',1,22,27,236.09601513314615,46.88124727986977,0.0,0.0,0.0,0.0,1,1,0
219, '1 ',1,22,25,140.07126918085453,24.01801578944642,0.0,0.0,0.0,0.0,1,1,0
220, '1 ',1,22,25,112.19602759584188,23.29779488010686,0.0,0.0,0.0,0.0,1,1,0
221, '1 ',1,22,27,0.0,0.0,0.0,0.0,0.0,0.0,1,1,0
222, '1 ',1,22,27,0.0,0.0,0.0,0.0,0.0,0.0,1,1,0
223, '1 ',1,22,25,0.0,0.0,0.0,0.0,0.0,0.0,1,1,0
224, '1 ',1,22,26,0.0,0.0,0.0,0.0,0.0,0.0,1,1,0
301, '1 ',1,31,31,83.9003995776018,12.080808463194966,0.0,0.0,0.0,0.0,1,1,0
302, '1 ',1,31,32,84.1274997329333,16.363687134264037,0.0,0.0,0.0,0.0,1,1,0
303, '1 ',1,31,31,103.88425288970768,21.075831378238274,0.0,0.0,0.0,0.0,1,1,0
304, '1 ',1,31,31,65.10344070382592,8.422810218590078,0.0,0.0,0.0,0.0,1,1,0
305, '1 ',1,31,31,61.457493986532135,7.017901687785331,0.0,0.0,0.0,0.0,1,1,0
306, '1 ',1,31,32,104.37743732075171,14.58487082249578,0.0,0.0,0.0,0.0,1,1,0
307, '1 ',1,31,32,65.8397014365415,13.854732912221223,0.0,0.0,0.0,0.0,1,1,0
308, '1 ',1,31,32,93.91404089568998,20.877013388232324,0.0,0.0,0.0,0.0,1,1,0
309, '1 ',1,31,33,97.46330056912615,21.615719959267416,0.0,0.0,0.0,0.0,1,1,0
310, '1 ',1,31,33,135.02799525862048,24.503328556878493,0.0,0.0,0.0,0.0,1,1,0
311, '1 ',1,31,33,0.0,0.0,0.0,0.0,0.0,0.0,1,1,0
312, '1 ',1,31,33,0.0,0.0,0.0,0.0,0.0,0.0,1,1,0
313, '1 ',1,32,34,135.80909808374102,30.214968500804336,0.0,0.0,0.0,0.0,1,1,0
314, '1 ',1,32,36,100.16691159160416,32.10575263159443,0.0,0.0,0.0,0.0,1,1,0
315, '1 ',1,32,36,164.23217755147778,33.558859010794755,0.0,0.0,0.0,0.0,1,1,0
316, '1 ',1,32,36,51.65678540778345,12.244133958214894,0.0,0.0,0.0,0.0,1,1,0
317, '1 ',1,32,37,0.0,0.0,0.0,0.0,0.0,0.0,1,1,0
318, '1 ',1,32,37,294.50032777086625,51.21661229815353,0.0,0.0,0.0,0.0,1,1,0
319, '1 ',1,32,35,114.32807175834846,19.559971024811965,0.0,0.0,0.0,0.0,1,1,0
320, '1 ',1,32,35,73.65937179025411,17.923156162139588,0.0,0.0,0.0,0.0,1,1,0
321, '1 ',1,32,37,0.0,0.0,0.0,0.0,0.0,0.0,1,1,0
322, '1 ',1,32,37,0.0,0.0,0.0,0.0,0.0,0.0,1,1,0
323, '1 ',1,32,35,0.0,0.0,0.0,0.0,0.0,0.0,1,1,0
324, '1 ',1,32,36,0.0,0.0,0.0,0.0,0.0,0.0,1,1,0
325, '1 ',1,32,35,0.0,0.0,0.0,0.0,0.0,0.0,1,1,0
0 / END OF LOAD DATA, BEGIN FIXED SHUNT DATA
0 / END OF FIXED SHUNT DATA, BEGIN GENERATOR DATA
101,1,10,0,8.932518801651895,1.902535194531084,1.035,0,24,0,1,0,0,1,1,100,18.959162301383913,15.344762383121997,1,1,0,1
101,2,10,0,8.200023783370852,-3.0465385671705008,1.035,0,24,0,1,0,0,1,1,100,21.228954813443124,17.50882729122415,1,1,0,1
101,3,76,14.1,33.65585957095027,-37.41256811399944,1.035,0,89,0,1,0,0,1,1,100,56.7597108406946,26.38515899465343,1,1,0,1
101,4,76,14.1,26.59276613825932,-27.64695836021565,1.035,0,89,0,1,0,0,1,1,100,91.01131379678846,32.78942838445306,1,1,0,1
102,5,10,0,7.319959970191121,-1.9192701196298003,1.035,0,24,0,1,0,0,1,1,100,21.987125084735453,18.207885418431836,1,1,0,1
102,6,10,0,11.121387387160212,3.991431492380798,1.035,0,24,0,1,0,0,1,1,100,15.905692506581543,11.61782772919163,1,1,0,1
102,7,76,7,29.633153916802257,-30.320101495366544,1.035,0,89,0,1,0,0,1,1,100,86.99236573446542,41.315270067937675,1,1,0,1
102,8,76,7,28.955042250920087,-18.563195723341778,1.035,0,89,0,1,0,0,1,1,100,93.39341502543539,23.107909074388445,1,1,0,1
107,9,80,17.2,73.58084965031594,11.845669705420725,1.025,0,118,0,1,0,0,1,1,100,81.29171192646027,28.733852717559785,1,1,0,1
107,10,80,17.2,76.40008678939195,14.157037088647499,1.025,0,118,0,1,0,0,1,1,100,80.00708582811058,5.373352187452838,1,1,0,1
107,11,80,17.2,74.70645791664721,4.452542594634011,1.025,0,118,0,1,0,0,1,1,100,74.81091036461294,21.797914798371494,1,1,0,1
113,12,95.1,40.7,97.50264989584686,12.251147791743293,1.02,0,232,0,1,0,0,1,1,100,228.91686849999243,110.67883764983156,1,1,0,1
113,13,95.1,40.7,58.816930171102285,-28.769912123680115,1.02,0,232,0,1,0,0,1,1,100,202.721349277487,43.382223593869696,1,1,0,1
113,14,95.1,40.7,98.82386933267117,6.376804109662771,1.02,0,232,0,1,0,0,1,1,100,190.7856921213679,26.001677936117602,1,1,0,1
114,15,0,13.7,180.39802541956306,-31.461079630535096,0.98,0,100,0,1,0,0,1,1,100,0.0,0.0,1,1,0,1
115,16,12,0,4.660710595361888,-2.4004600376822056,1.014,0,14,0,1,0,0,1,1,100,12.460739928670229,5.419420947320761,1,1,0,1
115,17,12,0,5.077185983397066,-0.1364403013139972,1.014,0,14,0,1,0,0,1,1,100,13.72435829266906,2.6219931524992006,1,1,0,1
115,18,12,0,5.372537691425531,-1.9905698231421418,1.014,0,14,0,1,0,0,1,1,100,11.392196428589521,4.556566713117062,1,1,0,1
115,19,12,0,6.495969516132027,2.1152610171586286,1.014,0,14,0,1,0,0,1,1,100,12.807583407126366,0.34891086068004107,1,1,0,1
115,20,12,0,6.097047503851353,-0.2865941380150616,1.014,0,14,0,1,0,0,1,1,100,11.981549570336938,10.686575190836047,1,1,0,1
115,21,155,0.05,88.88037649542093,-72.13761289790273,1.014,0,182,0,1,0,0,1,1,100,183.26601181575097,103.71823708317243,1,1,0,1
116,22,155,25.22,87.06067674979568,-44.43187211547047,1.017,0,182,0,1,0,0,1,1,100,122.81562102655879,9.463513681222679,1,1,0,1
118,23,400,137.4,203.3819857798517,-24.641973497346015,1.05,0,471,0,1,0,0,1,1,100,510.55329918861395,278.82641714531934,1,1,0,1
121,24,400,108.2,163.59581193886697,-48.343861990142614,1.05,0,471,0,1,0,0,1,1,100,396.8537236750126,156.5408985037357,1,1,0,1
122,25,50,-4.96,12.394542348384856,-14.124970969557761,1.05,0,53,0,1,0,0,1,1,100,52.71242663497105,13.29484078567475,1,1,0,1
122,26,50,-4.96,18.36303440332413,-13.223787012603132,1.05,0,53,0,1,0,0,1,1,100,44.69932544277981,8.526291421148933,1,1,0,1
122,27,50,-4.96,19.764878883957863,-9.90538150826469,1.05,0,53,0,1,0,0,1,1,100,53.326176323462285,7.901124958880253,1,1,0,1
122,28,50,-4.96,17.74640590324998,-2.9067561510950313,1.05,0,53,0,1,0,0,1,1,100,49.57530532497913,12.45380464475602,1,1,0,1
122,29,50,-4.96,13.242628597468137,-18.25826798528433,1.05,0,53,0,1,0,0,1,1,100,48.67767368676141,11.316385630052537,1,1,0,1
122,30,50,-4.96,16.424783596396445,-9.340215476881713,1.05,0,53,0,1,0,0,1,1,100,53.95271355519071,52.82467479551387,1,1,0,1
123,31,155,31.79,70.32323582842946,-82.92497917823493,1.05,0,182,0,1,0,0,1,1,100,142.9520274742972,25.903906896291303,1,1,0,1
123,32,155,31.79,81.71073184162378,-36.30844456143677,1.05,0,182,0,1,0,0,1,1,100,142.4154087328352,54.05118551345076,1,1,0,1
123,33,350,71.78,137.86323225824162,-39.25707450718619,1.05,0,412,0,1,0,0,1,1,100,320.10600208770484,86.57302520889789,1,1,0,1
201,34,10,0,8.701861512381583,-2.1342213498428464,1.035,0,24,0,1,0,0,1,1,100,22.040051536634564,17.066358879012988,1,1,0,1
201,35,10,0,7.244771847035736,-0.18133806483819992,1.035,0,24,0,1,0,0,1,1,100,24.62332659028471,21.66338538625278,1,1,0,1
201,36,76,14.1,31.316065671388063,-9.977416486712162,1.035,0,89,0,1,0,0,1,1,100,78.41261543091387,7.6816786886379305,1,1,0,1
201,37,76,14.1,25.206990952603515,-13.828552522696558,1.035,0,89,0,1,0,0,1,1,100,66.72590122520924,3.2839135867357285,1,1,0,1
202,38,10,0,12.780353044625372,0.7988765928894281,1.035,0,24,0,1,0,0,1,1,100,14.79970167670399,9.434763806676493,1,1,0,1
202,39,10,0,8.31535207806155,-1.5105068944394588,1.035,0,24,0,1,0,0,1,1,100,22.812508803792298,19.291770856464282,1,1,0,1
202,40,76,7,34.36802981374785,-6.083286331268027,1.035,0,89,0,1,0,0,1,1,100,82.3669171391055,10.095819583348927,1,1,0,1
202,41,76,7,26.760263704229146,-30.732430014759295,1.035,0,89,0,1,0,0,1,1,100,94.31630846615882,18.611060427241043,1,1,0,1
207,42,80,17.2,54.13777813408524,6.291743332520127,1.025,0,118,0,1,0,0,1,1,100,87.46350364759564,30.593832451850176,1,1,0,1
207,43,80,17.2,73.96610051952302,25.808834337629378,1.025,0,118,0,1,0,0,1,1,100,107.73788710124789,30.56547862826845,1,1,0,1
207,44,80,17.2,72.9848952870816,28.506654722616084,1.025,0,118,0,1,0,0,1,1,100,93.63675541244447,33.20528636104427,1,1,0,1
213,45,95.1,40.7,102.54182817786933,13.045879449695363,1.02,0,232,0,1,0,0,1,1,100,169.0478972846642,35.12951038762691,1,1,0,1
213,46,95.1,40.7,74.46259892359376,-27.37199326604606,1.02,0,232,0,1,0,0,1,1,100,247.78880903543904,102.3113717802963,1,1,0,1
213,47,95.1,40.7,74.6124907322228,-23.9079208932817,1.02,0,232,0,1,0,0,1,1,100,231.08161560753362,77.55409497584915,1,1,0,1
214,48,0,13.68,153.262894237414,-31.181406429968774,0.98,0,100,0,1,0,0,1,1,100,0.0,0.0,1,1,0,1
215,49,12,0,6.564384141191841,-0.1257803091779337,1.014,0,14,0,1,0,0,1,1,100,11.90209162440151,1.5176282028481367,1,1,0,1
215,50,12,0,5.268906444869936,-2.152763894107193,1.014,0,14,0,1,0,0,1,1,100,9.505526879243552,0.3969083311781283,1,1,0,1
215,51,12,0,7.171052773576229,-0.0513023444451397,1.014,0,14,0,1,0,0,1,1,100,11.69275617096573,4.626739305742084,1,1,0,1
215,52,12,0,5.51528077321127,0.6329049507156013,1.014,0,14,0,1,0,0,1,1,100,8.787225275114178,1.9178382747620342,1,1,0,1
215,53,12,0,6.464986141305417,-0.44877717336639833,1.014,0,14,0,1,0,0,1,1,100,10.415616308525204,0.8740792918950309,1,1,0,1
215,54,155,0.048,97.71317692846061,-34.76962681533767,1.014,0,182,0,1,0,0,1,1,100,158.53886333620176,76.19616578014102,1,1,0,1
216,55,155,25.22,70.20557710900903,-30.60612704511732,1.017,0,182,0,1,0,0,1,1,100,112.25515663134864,64.31046359144572,1,1,0,1
218,56,400,137.4,242.3994131758809,-0.22324549267068505,1.05,0,471,0,1,0,0,1,1,100,410.94069508835673,146.01682947482914,1,1,0,1
221,57,400,108.2,199.11616737022996,-92.92270699283108,1.05,0,471,0,1,0,0,1,1,100,396.3224473595619,71.32021679077297,1,1,0,1
222,58,50,-4.96,18.690777217596768,-0.16726010646670986,1.05,0,53,0,1,0,0,1,1,100,49.17433851165697,1.7497222102247179,1,1,0,1
222,59,50,-4.96,17.886962904781104,-12.860132876317948,1.05,0,53,0,1,0,0,1,1,100,62.93648678576573,9.219540799967938,1,1,0,1
222,60,50,-4.96,19.87044945731759,0.49890394210815714,1.05,0,53,0,1,0,0,1,1,100,50.353477688040584,11.66617441456765,1,1,0,1
222,61,50,-4.96,13.210097000747918,-14.021055787429216,1.05,0,53,0,1,0,0,1,1,100,62.274996682535864,19.77543884189801,1,1,0,1
222,62,50,-4.96,14.757639553397894,-6.893820582795886,1.05,0,53,0,1,0,0,1,1,100,50.27038512285799,7.884380235336721,1,1,0,1
222,63,50,-4.96,15.494241255521775,-10.406149102095512,1.05,0,53,0,1,0,0,1,1,100,64.10321721807122,6.213390268385417,1,1,0,1
223,64,155,31.79,89.65284138172865,-48.25020236801356,1.05,0,182,0,1,0,0,1,1,100,110.87821826618163,42.94618563244875,1,1,0,1
223,65,155,31.79,74.65073495358229,-48.91500062961131,1.05,0,182,0,1,0,0,1,1,100,168.38595305662602,85.47702392075443,1,1,0,1
223,66,350,71.78,135.66845304099843,-29.32357319048606,1.05,0,412,0,1,0,0,1,1,100,416.2421192065813,161.9815442175605,1,1,0,1
301,67,10,0,12.062067996710539,3.932152781635523,1.035,0,24,0,1,0,0,1,1,100,22.399122861213982,19.012181358169766,1,1,0,1
301,68,10,0,10.54561371030286,-1.7703811624087393,1.035,0,24,0,1,0,0,1,1,100,21.37770247552544,16.6725685597118,1,1,0,1
301,69,76,14.1,24.566033556126058,-27.079754058271646,1.035,0,89,0,1,0,0,1,1,100,61.2722497805953,6.9600252412259636,1,1,0,1
301,70,76,14.1,26.50573850143701,-36.052813672227785,1.035,0,89,0,1,0,0,1,1,100,89.24990953505039,10.31470149844884,1,1,0,1
302,71,10,0,10.984033280983567,1.814459189772606,1.035,0,24,0,1,0,0,1,1,100,14.96585061121732,10.491573024699465,1,1,0,1
302,72,10,0,10.686361607164145,3.00926690781489,1.035,0,24,0,1,0,0,1,1,100,16.136166538111866,12.988838699767367,1,1,0,1
302,73,76,7,31.329739287961274,-17.749798806849867,1.035,0,89,0,1,0,0,1,1,100,56.94076996557414,8.808953218981621,1,1,0,1
302,74,76,7,38.31090000271797,-12.963421877473593,1.035,0,89,0,1,0,0,1,1,100,94.60795642770826,27.361050616428244,1,1,0,1
307,75,80,17.2,59.02880629710853,1.3773753745481372,1.025,0,118,0,1,0,0,1,1,100,121.64265491068362,42.19949305290355,1,1,0,1
307,76,80,17.2,63.68407234456391,-7.439419473521404,1.025,0,118,0,1,0,0,1,1,100,115.91014581266789,23.852710997452945,1,1,0,1
307,77,80,17.2,45.64847513101995,-14.852318244986236,1.025,0,118,0,1,0,0,1,1,100,127.11835597641765,35.41065695113501,1,1,0,1
313,78,95.1,40.7,60.14858089759946,-12.491228185594082,1.02,0,232,0,1,0,0,1,1,100,164.06860076324085,51.59044708766743,1,1,0,1
313,79,95.1,40.7,89.17681208997965,22.14638740941882,1.02,0,232,0,1,0,0,1,1,100,162.06594071979634,11.419301282760507,1,1,0,1
313,80,95.1,40.7,85.75463161990047,-0.2725411020219326,1.02,0,232,0,1,0,0,1,1,100,139.5427866014652,123.46050084484524,1,1,0,1
314,81,0,13.68,223.871244546026,-19.93696873774752,0.98,0,100,0,1,0,0,1,1,100,0.0,0.0,1,1,0,1
315,82,12,0,7.6983388611115515,3.2484958866611127,1.014,0,14,0,1,0,0,1,1,100,15.149947760626674,5.780062882080674,1,1,0,1
315,83,12,0,7.667067071702332,0.5412957756780106,1.014,0,14,0,1,0,0,1,1,100,15.026557923294604,7.75668380264193,1,1,0,1
315,84,12,0,5.981220336724073,-0.7058234799653293,1.014,0,14,0,1,0,0,1,1,100,10.050455898977816,6.86144398646866,1,1,0,1
315,85,12,0,5.464356963057071,1.162608190532774,1.014,0,14,0,1,0,0,1,1,100,8.471378849074243,5.971816713884616,1,1,0,1
315,86,12,0,5.016081965435296,0.0931796117685737,1.014,0,14,0,1,0,0,1,1,100,11.698589082062245,1.189909025877716,1,1,0,1
315,87,155,0.048,93.68417193740606,-15.65812141820787,1.014,0,182,0,1,0,0,1,1,100,188.6762585269753,98.99738252538954,1,1,0,1
316,88,155,25.22,62.924854312092066,-35.27993865404278,1.017,0,182,0,1,0,0,1,1,100,177.27901968639344,102.62673298254377,1,1,0,1
318,89,400,137.4,167.29068242944777,-152.87044693017384,1.05,0,471,0,1,0,0,1,1,100,438.5124001838267,106.84010034892708,1,1,0,1
321,90,400,108.2,142.45816010050473,-155.3221219382249,1.05,0,471,0,1,0,0,1,1,100,350.4899992607534,132.77803633827716,1,1,0,1
322,91,50,-4.96,16.539271656423807,-16.06621623905376,1.05,0,53,0,1,0,0,1,1,100,46.75015282118693,21.334856450151307,1,1,0,1
322,92,50,-4.96,13.328795675188303,-13.374757300037892,1.05,0,53,0,1,0,0,1,1,100,39.380451021716,28.528778853529275,1,1,0,1
322,93,50,-4.96,12.507739995419978,-9.204655955452473,1.05,0,53,0,1,0,0,1,1,100,51.67792654363439,5.200375111307956,1,1,0,1
322,94,50,-4.96,20.4790234670043,-8.309275990072639,1.05,0,53,0,1,0,0,1,1,100,40.94833308830857,18.167292380713253,1,1,0,1
322,95,50,-4.96,14.82638890221715,-14.536612894292919,1.05,0,53,0,1,0,0,1,1,100,52.62552533997222,3.182156046386801,1,1,0,1
322,96,50,-4.96,14.44739110544324,-5.069958092365413,1.05,0,53,0,1,0,0,1,1,100,59.36313362093642,7.247691973972792E-4,1,1,0,1
323,97,155,31.79,99.83645025268197,-34.241116187069565,1.05,0,182,0,1,0,0,1,1,100,167.92254053172655,68.5424135919544,1,1,0,1
323,98,155,31.79,95.99941850453615,-48.18950952263549,1.05,0,182,0,1,0,0,1,1,100,133.30060866707936,38.95428997993004,1,1,0,1
323,99,350,71.78,174.7879617358558,-37.90892423829061,1.05,0,412,0,1,0,0,1,1,100,275.613617603667,49.344995425082686,1,1,0,1
0 / END OF GENERATOR DATA, BEGIN BRANCH DATA
101,102,1,0.003,0.014,0.461,210.0,231.6,240.0,0,0,0,0,1,1,0,1,1
101,103,1,0.055,0.211,0.057,210.0,249.6,264.0,0,0,0,0,1,1,0,1,1
101,105,1,0.022,0.085,0.023,210.0,249.6,264.0,0,0,0,0,1,1,0,1,1
102,104,1,0.033,0.127,0.034,210.0,249.6,264.0,0,0,0,0,1,1,0,1,1
102,106,1,0.05,0.192,0.052,210.0,249.6,264.0,0,0,0,0,1,1,0,1,1
103,109,1,0.031,0.119,0.032,210.0,249.6,264.0,0,0,0,0,1,1,0,1,1
104,109,1,0.027,0.104,0.028,210.0,249.6,264.0,0,0,0,0,1,1,0,1,1
105,110,1,0.023,0.088,0.024,210.0,249.6,264.0,0,0,0,0,1,1,0,1,1
106,110,1,0.014,0.061,2.459,210.0,231.6,240.0,0,0,0,0,1,1,0,1,1
107,108,1,0.016,0.061,0.017,210.0,249.6,264.0,0,0,0,0,1,1,0,1,1
107,203,1,0.042,0.161,0.044,210.0,249.6,264.0,0,0,0,0,1,1,0,1,1
108,109,1,0.043,0.165,0.045,210.0,249.6,264.0,0,0,0,0,1,1,0,1,1
108,110,1,0.043,0.165,0.045,210.0,249.6,264.0,0,0,0,0,1,1,0,1,1
111,113,1,0.006,0.048,0.1,600.0,720.0,750.0,0,0,0,0,1,1,0,1,1
111,114,1,0.005,0.042,0.088,600.0,720.0,750.0,0,0,0,0,1,1,0,1,1
112,113,1,0.006,0.048,0.1,600.0,720.0,750.0,0,0,0,0,1,1,0,1,1
112,123,1,0.012,0.097,0.203,600.0,720.0,750.0,0,0,0,0,1,1,0,1,1
113,123,1,0.011,0.087,0.182,600.0,720.0,750.0,0,0,0,0,1,1,0,1,1
113,215,1,0.01,0.075,0.158,600.0,720.0,750.0,0,0,0,0,1,1,0,1,1
114,116,1,0.005,0.059,0.082,600.0,720.0,750.0,0,0,0,0,1,1,0,1,1
115,116,1,0.002,0.017,0.036,600.0,720.0,750.0,0,0,0,0,1,1,0,1,1
115,121,1,0.006,0.049,0.103,600.0,720.0,750.0,0,0,0,0,1,1,0,1,1
115,121,2,0.006,0.049,0.103,600.0,720.0,750.0,0,0,0,0,1,1,0,1,1
115,124,1,0.007,0.052,0.109,600.0,720.0,750.0,0,0,0,0,1,1,0,1,1
116,117,1,0.003,0.026,0.055,600.0,720.0,750.0,0,0,0,0,1,1,0,1,1
116,119,1,0.003,0.023,0.049,600.0,720.0,750.0,0,0,0,0,1,1,0,1,1
117,118,1,0.002,0.014,0.03,600.0,720.0,750.0,0,0,0,0,1,1,0,1,1
117,122,1,0.014,0.105,0.221,600.0,720.0,750.0,0,0,0,0,1,1,0,1,1
118,121,1,0.003,0.026,0.055,600.0,720.0,750.0,0,0,0,0,1,1,0,1,1
118,121,2,0.003,0.026,0.055,600.0,720.0,750.0,0,0,0,0,1,1,0,1,1
119,120,1,0.005,0.04,0.083,600.0,720.0,750.0,0,0,0,0,1,1,0,1,1
119,120,2,0.005,0.04,0.083,600.0,720.0,750.0,0,0,0,0,1,1,0,1,1
120,123,1,0.003,0.022,0.046,600.0,720.0,750.0,0,0,0,0,1,1,0,1,1
120,123,2,0.003,0.022,0.046,600.0,720.0,750.0,0,0,0,0,1,1,0,1,1
121,122,1,0.009,0.068,0.142,600.0,720.0,750.0,0,0,0,0,1,1,0,1,1
123,217,1,0.01,0.074,0.155,600.0,720.0,750.0,0,0,0,0,1,1,0,1,1
201,202,1,0.003,0.014,0.461,210.0,231.6,240.0,0,0,0,0,1,1,0,1,1
201,203,1,0.055,0.211,0.057,210.0,249.6,264.0,0,0,0,0,1,1,0,1,1
201,205,1,0.022,0.085,0.023,210.0,249.6,264.0,0,0,0,0,1,1,0,1,1
202,204,1,0.033,0.127,0.034,210.0,249.6,264.0,0,0,0,0,1,1,0,1,1
202,206,1,0.05,0.192,0.052,210.0,249.6,264.0,0,0,0,0,1,1,0,1,1
203,209,1,0.031,0.119,0.032,210.0,249.6,264.0,0,0,0,0,1,1,0,1,1
204,209,1,0.027,0.104,0.028,210.0,249.6,264.0,0,0,0,0,1,1,0,1,1
205,210,1,0.023,0.088,0.024,210.0,249.6,264.0,0,0,0,0,1,1,0,1,1
206,210,1,0.014,0.061,2.459,210.0,231.6,240.0,0,0,0,0,1,1,0,1,1
207,208,1,0.016,0.061,0.017,210.0,249.6,264.0,0,0,0,0,1,1,0,1,1
208,209,1,0.043,0.165,0.045,210.0,249.6,264.0,0,0,0,0,1,1,0,1,1
208,210,1,0.043,0.165,0.045,210.0,249.6,264.0,0,0,0,0,1,1,0,1,1
211,213,1,0.006,0.048,0.1,600.0,720.0,750.0,0,0,0,0,1,1,0,1,1
211,214,1,0.005,0.042,0.088,600.0,720.0,750.0,0,0,0,0,1,1,0,1,1
212,213,1,0.006,0.048,0.1,600.0,720.0,750.0,0,0,0,0,1,1,0,1,1
212,223,1,0.012,0.097,0.203,600.0,720.0,750.0,0,0,0,0,1,1,0,1,1
213,223,1,0.011,0.087,0.182,600.0,720.0,750.0,0,0,0,0,1,1,0,1,1
214,216,1,0.005,0.059,0.082,600.0,720.0,750.0,0,0,0,0,1,1,0,1,1
215,216,1,0.002,0.017,0.036,600.0,720.0,750.0,0,0,0,0,1,1,0,1,1
215,221,1,0.006,0.049,0.103,600.0,720.0,750.0,0,0,0,0,1,1,0,1,1
215,221,2,0.006,0.049,0.103,600.0,720.0,750.0,0,0,0,0,1,1,0,1,1
215,224,1,0.007,0.052,0.109,600.0,720.0,750.0,0,0,0,0,1,1,0,1,1
216,217,1,0.003,0.026,0.055,600.0,720.0,750.0,0,0,0,0,1,1,0,1,1
216,219,1,0.003,0.023,0.049,600.0,720.0,750.0,0,0,0,0,1,1,0,1,1
217,218,1,0.002,0.014,0.03,600.0,720.0,750.0,0,0,0,0,1,1,0,1,1
217,222,1,0.014,0.105,0.221,600.0,720.0,750.0,0,0,0,0,1,1,0,1,1
218,221,1,0.003,0.026,0.055,600.0,720.0,750.0,0,0,0,0,1,1,0,1,1
218,221,2,0.003,0.026,0.055,600.0,720.0,750.0,0,0,0,0,1,1,0,1,1
219,220,1,0.005,0.04,0.083,600.0,720.0,750.0,0,0,0,0,1,1,0,1,1
219,220,2,0.005,0.04,0.083,600.0,720.0,750.0,0,0,0,0,1,1,0,1,1
220,223,1,0.003,0.022,0.046,600.0,720.0,750.0,0,0,0,0,1,1,0,1,1
220,223,2,0.003,0.022,0.046,600.0,720.0,750.0,0,0,0,0,1,1,0,1,1
221,222,1,0.009,0.068,0.142,600.0,720.0,750.0,0,0,0,0,1,1,0,1,1
301,302,1,0.003,0.014,0.461,210.0,231.6,240.0,0,0,0,0,1,1,0,1,1
301,303,1,0.055,0.211,0.057,210.0,249.6,264.0,0,0,0,0,1,1,0,1,1
301,305,1,0.022,0.085,0.023,210.0,249.6,264.0,0,0,0,0,1,1,0,1,1
302,304,1,0.033,0.127,0.034,210.0,249.6,264.0,0,0,0,0,1,1,0,1,1
302,306,1,0.05,0.192,0.052,210.0,249.6,264.0,0,0,0,0,1,1,0,1,1
303,309,1,0.031,0.119,0.032,210.0,249.6,264.0,0,0,0,0,1,1,0,1,1
304,309,1,0.027,0.104,0.028,210.0,249.6,264.0,0,0,0,0,1,1,0,1,1
305,310,1,0.023,0.088,0.024,210.0,249.6,264.0,0,0,0,0,1,1,0,1,1
306,310,1,0.014,0.061,2.459,210.0,231.6,240.0,0,0,0,0,1,1,0,1,1
307,308,1,0.016,0.061,0.017,210.0,249.6,264.0,0,0,0,0,1,1,0,1,1
308,309,1,0.043,0.165,0.045,210.0,249.6,264.0,0,0,0,0,1,1,0,1,1
308,310,1,0.043,0.165,0.045,210.0,249.6,264.0,0,0,0,0,1,1,0,1,1
311,313,1,0.006,0.048,0.1,600.0,720.0,750.0,0,0,0,0,1,1,0,1,1
311,314,1,0.005,0.042,0.088,600.0,720.0,750.0,0,0,0,0,1,1,0,1,1
312,313,1,0.006,0.048,0.1,600.0,720.0,750.0,0,0,0,0,1,1,0,1,1
312,323,1,0.012,0.097,0.203,600.0,720.0,750.0,0,0,0,0,1,1,0,1,1
313,323,1,0.011,0.087,0.182,600.0,720.0,750.0,0,0,0,0,1,1,0,1,1
314,316,1,0.005,0.059,0.082,600.0,720.0,750.0,0,0,0,0,1,1,0,1,1
315,316,1,0.002,0.017,0.036,600.0,720.0,750.0,0,0,0,0,1,1,0,1,1
315,321,1,0.006,0.049,0.103,600.0,720.0,750.0,0,0,0,0,1,1,0,1,1
315,321,2,0.006,0.049,0.103,600.0,720.0,750.0,0,0,0,0,1,1,0,1,1
315,324,1,0.007,0.052,0.109,600.0,720.0,750.0,0,0,0,0,1,1,0,1,1
316,317,1,0.003,0.026,0.055,600.0,720.0,750.0,0,0,0,0,1,1,0,1,1
316,319,1,0.003,0.023,0.049,600.0,720.0,750.0,0,0,0,0,1,1,0,1,1
317,318,1,0.002,0.014,0.03,600.0,720.0,750.0,0,0,0,0,1,1,0,1,1
317,322,1,0.014,0.105,0.221,600.0,720.0,750.0,0,0,0,0,1,1,0,1,1
318,223,1,0.013,0.104,0.218,600.0,720.0,750.0,0,0,0,0,1,1,0,1,1
318,321,1,0.003,0.026,0.055,600.0,720.0,750.0,0,0,0,0,1,1,0,1,1
318,321,2,0.003,0.026,0.055,600.0,720.0,750.0,0,0,0,0,1,1,0,1,1
319,320,1,0.005,0.04,0.083,600.0,720.0,750.0,0,0,0,0,1,1,0,1,1
319,320,2,0.005,0.04,0.083,600.0,720.0,750.0,0,0,0,0,1,1,0,1,1
320,323,1,0.003,0.022,0.046,600.0,720.0,750.0,0,0,0,0,1,1,0,1,1
320,323,2,0.003,0.022,0.046,600.0,720.0,750.0,0,0,0,0,1,1,0,1,1
321,322,1,0.009,0.068,0.142,600.0,720.0,750.0,0,0,0,0,1,1,0,1,1
323,325,1,0,0.009,0,866.4,1071.6,1071.6,0,0,0,0,1,1,0,1,1
325,121,1,0.012,0.097,0.203,600.0,720.0,750.0,0,0,0,0,1,1,0,1,1
0 / END OF BRANCH DATA, BEGIN TRANSFORMER DATA
  103 ,  124 , 0,  1 , 1, 1, 1, 0, 0, 2, '            ',  1 , 1, 1
   0.002000 ,  0.084000 ,  100.000000
   1.015000 , 0,  0.000000 ,  400.000000 ,  510.000000 ,  600.000000 , 0, 0,  1.10 ,  0.90 ,  1.10 ,  0.90 , 33, 0, 0, 0
   1.000000, 0
  109 ,  111 , 0,  1 , 1, 1, 1, 0, 0, 2, '            ',  1 , 1, 1
   0.002000 ,  0.084000 ,  100.000000
   1.030000 , 0,  0.000000 ,  400.000000 ,  510.000000 ,  600.000000 , 0, 0,  1.10 ,  0.90 ,  1.10 ,  0.90 , 33, 0, 0, 0
   1.000000, 0
  109 ,  112 , 0,  1 , 1, 1, 1, 0, 0, 2, '            ',  1 , 1, 1
   0.002000 ,  0.084000 ,  100.000000
   1.030000 , 0,  0.000000 ,  400.000000 ,  510.000000 ,  600.000000 , 0, 0,  1.10 ,  0.90 ,  1.10 ,  0.90 , 33, 0, 0, 0
   1.000000, 0
  110 ,  111 , 0,  1 , 1, 1, 1, 0, 0, 2, '            ',  1 , 1, 1
   0.002000 ,  0.084000 ,  100.000000
   1.015000 , 0,  0.000000 ,  400.000000 ,  510.000000 ,  600.000000 , 0, 0,  1.10 ,  0.90 ,  1.10 ,  0.90 , 33, 0, 0, 0
   1.000000, 0
  110 ,  112 , 0,  1 , 1, 1, 1, 0, 0, 2, '            ',  1 , 1, 1
   0.002000 ,  0.084000 ,  100.000000
   1.015000 , 0,  0.000000 ,  400.000000 ,  510.000000 ,  600.000000 , 0, 0,  1.10 ,  0.90 ,  1.10 ,  0.90 , 33, 0, 0, 0
   1.000000, 0
  203 ,  224 , 0,  1 , 1, 1, 1, 0, 0, 2, '            ',  1 , 1, 1
   0.002000 ,  0.084000 ,  100.000000
   1.015000 , 0,  0.000000 ,  400.000000 ,  510.000000 ,  600.000000 , 0, 0,  1.10 ,  0.90 ,  1.10 ,  0.90 , 33, 0, 0, 0
   1.000000, 0
  209 ,  211 , 0,  1 , 1, 1, 1, 0, 0, 2, '            ',  1 , 1, 1
   0.002000 ,  0.084000 ,  100.000000
   1.030000 , 0,  0.000000 ,  400.000000 ,  510.000000 ,  600.000000 , 0, 0,  1.10 ,  0.90 ,  1.10 ,  0.90 , 33, 0, 0, 0
   1.000000, 0
  209 ,  212 , 0,  1 , 1, 1, 1, 0, 0, 2, '            ',  1 , 1, 1
   0.002000 ,  0.084000 ,  100.000000
   1.030000 , 0,  0.000000 ,  400.000000 ,  510.000000 ,  600.000000 , 0, 0,  1.10 ,  0.90 ,  1.10 ,  0.90 , 33, 0, 0, 0
   1.000000, 0
  210 ,  211 , 0,  1 , 1, 1, 1, 0, 0, 2, '            ',  1 , 1, 1
   0.002000 ,  0.084000 ,  100.000000
   1.015000 , 0,  0.000000 ,  400.000000 ,  510.000000 ,  600.000000 , 0, 0,  1.10 ,  0.90 ,  1.10 ,  0.90 , 33, 0, 0, 0
   1.000000, 0
  210 ,  212 , 0,  1 , 1, 1, 1, 0, 0, 2, '            ',  1 , 1, 1
   0.002000 ,  0.084000 ,  100.000000
   1.015000 , 0,  0.000000 ,  400.000000 ,  510.000000 ,  600.000000 , 0, 0,  1.10 ,  0.90 ,  1.10 ,  0.90 , 33, 0, 0, 0
   1.000000, 0
  303 ,  324 , 0,  1 , 1, 1, 1, 0, 0, 2, '            ',  1 , 1, 1
   0.002000 ,  0.084000 ,  100.000000
   1.015000 , 0,  0.000000 ,  400.000000 ,  510.000000 ,  600.000000 , 0, 0,  1.10 ,  0.90 ,  1.10 ,  0.90 , 33, 0, 0, 0
   1.000000, 0
  309 ,  311 , 0,  1 , 1, 1, 1, 0, 0, 2, '            ',  1 , 1, 1
   0.002000 ,  0.084000 ,  100.000000
   1.030000 , 0,  0.000000 ,  400.000000 ,  510.000000 ,  600.000000 , 0, 0,  1.10 ,  0.90 ,  1.10 ,  0.90 , 33, 0, 0, 0
   1.000000, 0
  309 ,  312 , 0,  1 , 1, 1, 1, 0, 0, 2, '            ',  1 , 1, 1
   0.002000 ,  0.084000 ,  100.000000
   1.030000 , 0,  0.000000 ,  400.000000 ,  510.000000 ,  600.000000 , 0, 0,  1.10 ,  0.90 ,  1.10 ,  0.90 , 33, 0, 0, 0
   1.000000, 0
  310 ,  311 , 0,  1 , 1, 1, 1, 0, 0, 2, '            ',  1 , 1, 1
   0.002000 ,  0.084000 ,  100.000000
   1.015000 , 0,  0.000000 ,  400.000000 ,  510.000000 ,  600.000000 , 0, 0,  1.10 ,  0.90 ,  1.10 ,  0.90 , 33, 0, 0, 0
   1.000000, 0
  310 ,  312 , 0,  1 , 1, 1, 1, 0, 0, 2, '            ',  1 , 1, 1
   0.002000 ,  0.084000 ,  100.000000
   1.015000 , 0,  0.000000 ,  400.000000 ,  510.000000 ,  600.000000 , 0, 0,  1.10 ,  0.90 ,  1.10 ,  0.90 , 33, 0, 0, 0
   1.000000, 0
0 / END OF TRANSFORMER DATA, BEGIN AREA DATA
0 / END OF AREA DATA, BEGIN TWO-TERMINAL DC DATA
0 / END OF TWO-TERMINAL DC DATA, BEGIN VSC DC LINE DATA
0 / END OF VSC DC LINE DATA, BEGIN SWITCHED SHUNT DATA
0 / END OF SWITCHED SHUNT DATA, BEGIN IMPEDANCE CORRECTION DATA
0 / END OF IMPEDANCE CORRECTION DATA, BEGIN MULTI-TERMINAL DC DATA
0 / END OF MULTI-TERMINAL DC DATA, BEGIN MULTI-SECTION LINE DATA
0 / END OF MULTI-SECTION LINE DATA, BEGIN ZONE DATA
0 / END OF ZONE DATA, BEGIN INTER-AREA TRANSFER DATA
0 / END OF INTER-AREA TRANSFER DATA, BEGIN OWNER DATA
0 / END OF OWNER DATA, BEGIN FACTS CONTROL DEVICE DATA
0 / END OF FACTS CONTROL DEVICE DATA
0 / END OF SWITCHED SHUNT DATA, BEGIN GNE DATA
0 / END OF GNE DATA, BEGIN INDUCTION MACHINE DATA
0 / END OF INDUCTION MACHINE DATA
Q 
